# This is the CMakeCache file.
# For build in directory: /net/fs03/d0/emroy/GCrundir/MCHgMAP_runs/run0017/build
# It was generated by CMake: /home/software/cmake/3.26.4/bin/cmake
# You can edit this file to change values found and used by cmake.
# If you do not want to change any of the values, simply exit the editor.
# If you do want to change a value, simply edit, save, and exit the editor.
# The syntax for the file is as follows:
# KEY:TYPE=VALUE
# KEY is the name of a variable in the cache.
# TYPE is a hint to GUIs for the type of VALUE, DO NOT EDIT TYPE!.
# VALUE is the current value for the KEY.

########################
# EXTERNAL cache entries
########################

//Switch to build APM as a component of GEOS-Chem
APM:BOOL=OFF

//Dependencies for the target
APM_LIB_DEPENDS:STATIC=general;GeosUtil;

//Switch to enable GEOS-Chem's bpch diagnostics
BPCH_DIAG:BOOL=OFF

//Value Computed by CMake
CLOUDJ_BINARY_DIR:STATIC=/net/fs03/d0/emroy/GCrundir/MCHgMAP_runs/run0017/build/src/Cloud-J

//Value Computed by CMake
CLOUDJ_IS_TOP_LEVEL:STATIC=OFF

//Value Computed by CMake
CLOUDJ_SOURCE_DIR:STATIC=/net/fs03/d0/emroy/GCrundir/MCHgMAP_runs/run0017/CodeDir/src/Cloud-J

//Path to a program.
CMAKE_ADDR2LINE:FILEPATH=/usr/bin/addr2line

//Path to a program.
CMAKE_AR:FILEPATH=/usr/bin/ar

//Set the build type
CMAKE_BUILD_TYPE:STRING=Release

//Enable/Disable color output during build.
CMAKE_COLOR_MAKEFILE:BOOL=ON

//Path to a program.
CMAKE_DLLTOOL:FILEPATH=CMAKE_DLLTOOL-NOTFOUND

//Flags used by the linker during all build types.
CMAKE_EXE_LINKER_FLAGS:STRING=

//Flags used by the linker during DEBUG builds.
CMAKE_EXE_LINKER_FLAGS_DEBUG:STRING=

//Flags used by the linker during MINSIZEREL builds.
CMAKE_EXE_LINKER_FLAGS_MINSIZEREL:STRING=

//Flags used by the linker during RELEASE builds.
CMAKE_EXE_LINKER_FLAGS_RELEASE:STRING=

//Flags used by the linker during RELWITHDEBINFO builds.
CMAKE_EXE_LINKER_FLAGS_RELWITHDEBINFO:STRING=

//Enable/Disable output of compile commands during generation.
CMAKE_EXPORT_COMPILE_COMMANDS:BOOL=

//Value Computed by CMake.
CMAKE_FIND_PACKAGE_REDIRECTS_DIR:STATIC=/net/fs03/d0/emroy/GCrundir/MCHgMAP_runs/run0017/build/CMakeFiles/pkgRedirects

//Fortran compiler
CMAKE_Fortran_COMPILER:FILEPATH=/usr/bin/f95

//A wrapper around 'ar' adding the appropriate '--plugin' option
// for the GCC compiler
CMAKE_Fortran_COMPILER_AR:FILEPATH=/usr/bin/gcc-ar

//A wrapper around 'ranlib' adding the appropriate '--plugin' option
// for the GCC compiler
CMAKE_Fortran_COMPILER_RANLIB:FILEPATH=/usr/bin/gcc-ranlib

//Flags used by the Fortran compiler during all build types.
CMAKE_Fortran_FLAGS:STRING=

//Flags used by the Fortran compiler during DEBUG builds.
CMAKE_Fortran_FLAGS_DEBUG:STRING=-g

//Flags used by the Fortran compiler during MINSIZEREL builds.
CMAKE_Fortran_FLAGS_MINSIZEREL:STRING=-Os -DNDEBUG -Os

//Flags used by the Fortran compiler during RELEASE builds.
CMAKE_Fortran_FLAGS_RELEASE:STRING=-O3 -DNDEBUG -O3

//Flags used by the Fortran compiler during RELWITHDEBINFO builds.
CMAKE_Fortran_FLAGS_RELWITHDEBINFO:STRING=-O2 -g -DNDEBUG

//Fake CMAKE_INSTALL_PREFIX (use RUNDIR instead)
CMAKE_INSTALL_PREFIX:PATH=/net/fs03/d0/emroy/GCrundir/MCHgMAP_runs/run0017/build/install

//Path to a program.
CMAKE_LINKER:FILEPATH=/usr/bin/ld

//Path to a program.
CMAKE_MAKE_PROGRAM:FILEPATH=/usr/bin/gmake

//Flags used by the linker during the creation of modules during
// all build types.
CMAKE_MODULE_LINKER_FLAGS:STRING=

//Flags used by the linker during the creation of modules during
// DEBUG builds.
CMAKE_MODULE_LINKER_FLAGS_DEBUG:STRING=

//Flags used by the linker during the creation of modules during
// MINSIZEREL builds.
CMAKE_MODULE_LINKER_FLAGS_MINSIZEREL:STRING=

//Flags used by the linker during the creation of modules during
// RELEASE builds.
CMAKE_MODULE_LINKER_FLAGS_RELEASE:STRING=

//Flags used by the linker during the creation of modules during
// RELWITHDEBINFO builds.
CMAKE_MODULE_LINKER_FLAGS_RELWITHDEBINFO:STRING=

//Path to a program.
CMAKE_NM:FILEPATH=/usr/bin/nm

//Path to a program.
CMAKE_OBJCOPY:FILEPATH=/usr/bin/objcopy

//Path to a program.
CMAKE_OBJDUMP:FILEPATH=/usr/bin/objdump

//Value Computed by CMake
CMAKE_PROJECT_DESCRIPTION:STATIC=

//Value Computed by CMake
CMAKE_PROJECT_HOMEPAGE_URL:STATIC=

//Value Computed by CMake
CMAKE_PROJECT_NAME:STATIC=geos-chem-classic

//Value Computed by CMake
CMAKE_PROJECT_VERSION:STATIC=14.3.0

//Value Computed by CMake
CMAKE_PROJECT_VERSION_MAJOR:STATIC=14

//Value Computed by CMake
CMAKE_PROJECT_VERSION_MINOR:STATIC=3

//Value Computed by CMake
CMAKE_PROJECT_VERSION_PATCH:STATIC=0

//Value Computed by CMake
CMAKE_PROJECT_VERSION_TWEAK:STATIC=

//Path to a program.
CMAKE_RANLIB:FILEPATH=/usr/bin/ranlib

//Path to a program.
CMAKE_READELF:FILEPATH=/usr/bin/readelf

//Flags used by the linker during the creation of shared libraries
// during all build types.
CMAKE_SHARED_LINKER_FLAGS:STRING=

//Flags used by the linker during the creation of shared libraries
// during DEBUG builds.
CMAKE_SHARED_LINKER_FLAGS_DEBUG:STRING=

//Flags used by the linker during the creation of shared libraries
// during MINSIZEREL builds.
CMAKE_SHARED_LINKER_FLAGS_MINSIZEREL:STRING=

//Flags used by the linker during the creation of shared libraries
// during RELEASE builds.
CMAKE_SHARED_LINKER_FLAGS_RELEASE:STRING=

//Flags used by the linker during the creation of shared libraries
// during RELWITHDEBINFO builds.
CMAKE_SHARED_LINKER_FLAGS_RELWITHDEBINFO:STRING=

//If set, runtime paths are not added when installing shared libraries,
// but are added when building.
CMAKE_SKIP_INSTALL_RPATH:BOOL=NO

//If set, runtime paths are not added when using shared libraries.
CMAKE_SKIP_RPATH:BOOL=NO

//Flags used by the linker during the creation of static libraries
// during all build types.
CMAKE_STATIC_LINKER_FLAGS:STRING=

//Flags used by the linker during the creation of static libraries
// during DEBUG builds.
CMAKE_STATIC_LINKER_FLAGS_DEBUG:STRING=

//Flags used by the linker during the creation of static libraries
// during MINSIZEREL builds.
CMAKE_STATIC_LINKER_FLAGS_MINSIZEREL:STRING=

//Flags used by the linker during the creation of static libraries
// during RELEASE builds.
CMAKE_STATIC_LINKER_FLAGS_RELEASE:STRING=

//Flags used by the linker during the creation of static libraries
// during RELWITHDEBINFO builds.
CMAKE_STATIC_LINKER_FLAGS_RELWITHDEBINFO:STRING=

//Path to a program.
CMAKE_STRIP:FILEPATH=/usr/bin/strip

//If this value is on, makefiles will be generated without the
// .SILENT directive, and all commands will be echoed to the console
// during the make.  This is useful for debugging only. With Visual
// Studio IDE projects all commands are done without /nologo.
CMAKE_VERBOSE_MAKEFILE:BOOL=FALSE

//Cloud-J compiler flags for build type debug with GNU compilers
CloudJ_Fortran_FLAGS_DEBUG_GNU:STRING=-g;-gdwarf-2;-gstrict-dwarf;-O0;-Wall;-Wextra;-Wconversion;-Warray-temporaries;-fcheck=array-temps;-ffpe-trap=invalid,zero,overflow;-finit-real=snan;-fcheck=bounds;-fcheck=pointer

//Cloud-J compiler flags for build type debug with Intel compilers
CloudJ_Fortran_FLAGS_DEBUG_Intel:STRING=-g;-O0;SHELL:-check arg_temp_created;SHELL:-debug all;-fpe0;-ftrapuv;-check,bounds;-DDEBUG

//Cloud-J compiler flags for all build types with GNU compilers
CloudJ_Fortran_FLAGS_GNU:STRING=-cpp;-w;-std=legacy;-fautomatic;-fno-align-commons;-fconvert=big-endian;-fno-range-check;-mcmodel=medium;-fbacktrace;-g;-DLINUX_GFORTRAN;-ffree-line-length-none

//Cloud-J compiler flags for all build types with Intel compilers
CloudJ_Fortran_FLAGS_Intel:STRING=-cpp;-w;-auto;-noalign;SHELL:-convert big_endian;SHELL:-fp-model source;-mcmodel=medium;-shared-intel;-traceback;-DLINUX_IFORT

//Cloud-J compiler flags for build type release with GNU compilers
CloudJ_Fortran_FLAGS_RELEASE_GNU:STRING=-O3;-funroll-loops

//Cloud-J compiler flags for build type release with Intel compilers
CloudJ_Fortran_FLAGS_RELEASE_Intel:STRING=-O2

//Cloud-J compiler flags for build type relwithdebinfo with GNU
// compilers
CloudJ_Fortran_FLAGS_RELWITHDEBINFO_GNU:STRING=-O3;-funroll-loops

//Cloud-J compiler flags for build type relwithdebinfo with Intel
// compilers
CloudJ_Fortran_FLAGS_RELWITHDEBINFO_Intel:STRING=-O2

//Dependencies for the target
CloudJ_Standalone_LIB_DEPENDS:STATIC=general;CloudJ_Core;

//Default name for the GEOS-Chem Classic executable file
EXE_FILE_NAME:STRING=gcclassic

//Switch to use legacy FAST-JX in GEOS-Chem
FASTJX:BOOL=y

//Dependencies for the target
GCClassic_LIB_DEPENDS:STATIC=general;GeosCore;

//GEOSChem compiler flags for build type Debug with GNU compilers
GEOSChem_Fortran_FLAGS_DEBUG_GNU:STRING=-g;-O0;-Wall;-Wextra;-Wconversion;-Warray-temporaries;-fcheck=array-temps;-ffpe-trap=invalid,zero,overflow;-finit-real=snan;-fcheck=bounds;-fcheck=pointer

//GEOSChem compiler flags for build type Debug with Intel compilers
GEOSChem_Fortran_FLAGS_DEBUG_Intel:STRING=-g;-O0;SHELL:-check arg_temp_created;SHELL:-debug all;-fpe0;-ftrapuv;-check,bounds

//GEOSChem compiler flags for all build types with GNU compilers
GEOSChem_Fortran_FLAGS_GNU:STRING=-cpp;-w;-std=legacy;-fautomatic;-fno-align-commons;-fconvert=big-endian;-fno-range-check;-mcmodel=medium;-fbacktrace;-g;-DLINUX_GFORTRAN;-ffree-line-length-none

//GEOSChem compiler flags for all build types with Intel compilers
GEOSChem_Fortran_FLAGS_Intel:STRING=-cpp;-w;-auto;-noalign;SHELL:-convert big_endian;SHELL:-fp-model source;-mcmodel=medium;-shared-intel;-traceback;-DLINUX_IFORT

//GEOSChem compiler flags for build type Release with GNU compilers
GEOSChem_Fortran_FLAGS_RELEASE_GNU:STRING=-O3;-funroll-loops

//GEOSChem compiler flags for build type Release with Intel compilers
GEOSChem_Fortran_FLAGS_RELEASE_Intel:STRING=-O2

//GEOSChem compiler flags for build type RelWithDebInfo with GNU
// compilers
GEOSChem_Fortran_FLAGS_RELWITHDEBINFO_GNU:STRING=-O3;-funroll-loops

//GEOSChem compiler flags for build type RelWithdDebInfo with Intel
// compilers
GEOSChem_Fortran_FLAGS_RELWITHDEBINFO_Intel:STRING=-O2

//Current branch in code repo
GIT_BRANCH:STRING=version_14.3.0

//Last commit in Git repo
GIT_COMMIT:STRING="Update version number to 14.3.0 in preparation for release"

//Date of last Git commit
GIT_COMMIT_DATE:STRING="Wed Feb 7 14:17:04 2024 -0500"

//Last commit hash in Git repo
GIT_COMMIT_HASH:STRING="347e3de"

//Switch to build GTMM as a component of GEOS-Chem
GTMM:BOOL=OFF

//Dependencies for the target
GeosCore_LIB_DEPENDS:STATIC=general;ObsPack;general;History;general;Isorropia;general;KPP;

//Dependencies for the target
GeosUtilHco_LIB_DEPENDS:STATIC=general;NcdfUtilHco;

//Dependencies for the target
GeosUtil_LIB_DEPENDS:STATIC=general;NcdfUtil;

//Dependencies for the target
HCOI_Shared_LIB_DEPENDS:STATIC=general;HCOX;

//Dependencies for the target
HCOI_Standalone_LIB_DEPENDS:STATIC=general;HCOI_Shared;

//Switch to build the hemco-standalone (HCOSA) executable
HCOSA:BOOL=OFF

//Dependencies for the target
HCOX_LIB_DEPENDS:STATIC=general;HCO;

//Dependencies for the target
HCO_LIB_DEPENDS:STATIC=general;GeosUtilHco;general;NcdfUtilHco;

//Value Computed by CMake
HEMCO_BINARY_DIR:STATIC=/net/fs03/d0/emroy/GCrundir/MCHgMAP_runs/run0017/build/src/HEMCO

//HEMCO compiler flags for build type debug with GNU compilers
HEMCO_Fortran_FLAGS_DEBUG_GNU:STRING=-g;-gdwarf-2;-gstrict-dwarf;-O0;-Wall;-Wextra;-Wconversion;-Warray-temporaries;-fcheck=array-temps;-ffpe-trap=invalid,zero,overflow;-finit-real=snan;-fcheck=bounds;-fcheck=pointer;-fcheck=no-recursion

//HEMCO compiler flags for build type debug with Intel compilers
HEMCO_Fortran_FLAGS_DEBUG_Intel:STRING=-g;-O0;SHELL:-check arg_temp_created;SHELL:-debug all;-fpe0;-ftrapuv;-check,bounds;-DDEBUG

//HEMCO compiler flags for all build types with GNU compilers
HEMCO_Fortran_FLAGS_GNU:STRING=-cpp;-w;-std=legacy;-fautomatic;-fno-align-commons;-fconvert=big-endian;-fno-range-check;-mcmodel=medium;-fbacktrace;-g;-DLINUX_GFORTRAN;-ffree-line-length-none

//HEMCO compiler flags for all build types with Intel compilers
HEMCO_Fortran_FLAGS_Intel:STRING=-cpp;-w;-auto;-noalign;SHELL:-convert big_endian;SHELL:-fp-model source;-mcmodel=medium;-shared-intel;-traceback;-DLINUX_IFORT

//HEMCO compiler flags for build type release with GNU compilers
HEMCO_Fortran_FLAGS_RELEASE_GNU:STRING=-O3;-funroll-loops

//HEMCO compiler flags for build type release with Intel compilers
HEMCO_Fortran_FLAGS_RELEASE_Intel:STRING=-O2

//HEMCO compiler flags for build type relwithdebinfo with GNU compilers
HEMCO_Fortran_FLAGS_RELWITHDEBINFO_GNU:STRING=-O3;-funroll-loops

//HEMCO compiler flags for build type relwithdebinfo with Intel
// compilers
HEMCO_Fortran_FLAGS_RELWITHDEBINFO_Intel:STRING=-O2

//HEMCO interface type (used to choose appropriate I/O option)
HEMCO_INTERFACE:STRING=gcclassic

//Value Computed by CMake
HEMCO_IS_TOP_LEVEL:STATIC=OFF

//Value Computed by CMake
HEMCO_SOURCE_DIR:STATIC=/net/fs03/d0/emroy/GCrundir/MCHgMAP_runs/run0017/CodeDir/src/HEMCO

//Dependencies for the target
Headers_LIB_DEPENDS:STATIC=general;KPP_FirstPass;general;CloudJ_Core;

//Dependencies for the target
Hg_LIB_DEPENDS:STATIC=general;Headers;

//Dependencies for the target
History_LIB_DEPENDS:STATIC=general;GeosUtil;

//Dependencies for the target
JulDayHco_LIB_DEPENDS:STATIC=general;HeadersHco;

//Dependencies for the target
JulDay_LIB_DEPENDS:STATIC=general;Headers;

//Dependencies for the target
KPP_LIB_DEPENDS:STATIC=general;GeosUtil;

//Switch to build the Luo et al (2020) wetdep scheme into GEOS-Chem
LUO_WETDEP:BOOL=OFF

//Name of the chemistry mechanism to use
MECH:STRING=Hg

//Location of nc-config utility
NC_CONFIG:FILEPATH=/home/software/gcc/6.3.1/pkg/netcdf/4.7.4/bin/nc-config

//Directory containing "netcdf.h"
NETCDF_C_INCLUDE_DIR:PATH=/home/software/gcc/6.3.1/pkg/netcdf/4.7.4/include

//Path to "libnetcdf"
NETCDF_C_LIBRARY:FILEPATH=/home/software/gcc/6.3.1/pkg/netcdf/4.7.4/lib/libnetcdf.so

//Directory containing "netcdf.inc"
NETCDF_F77_INCLUDE_DIR:PATH=/home/software/gcc/6.3.1/pkg/netcdf-fortran/4.5.3/include

//Directory containing "netcdf.mod"
NETCDF_F90_INCLUDE_DIR:PATH=/home/software/gcc/6.3.1/pkg/netcdf-fortran/4.5.3/include

//Path to "libnetcdff"
NETCDF_F_LIBRARY:FILEPATH=/home/software/gcc/6.3.1/pkg/netcdf-fortran/4.5.3/lib/libnetcdff.so

//Location of nf-config utility
NF_CONFIG:FILEPATH=/home/software/gcc/6.3.1/pkg/netcdf-fortran/4.5.3/bin/nf-config

//Boolean opposite of the OMP switch, needed for backwards compatibility
NO_OMP:STRING=OFF

//Dependencies for the target
NcdfUtilHco_LIB_DEPENDS:STATIC=general;JulDayHco;general;HeadersHco;

//Dependencies for the target
NcdfUtil_LIB_DEPENDS:STATIC=general;JulDay;

//Switch to enable/disable OpenMP threading in GEOS-Chem
OMP:STRING=ON

//Dependencies for the target
ObsPack_LIB_DEPENDS:STATIC=general;GeosUtil;

//Fortran compiler flags for OpenMP parallelization
OpenMP_Fortran_FLAGS:STRING=-fopenmp

//Fortran compiler libraries for OpenMP parallelization
OpenMP_Fortran_LIB_NAMES:STRING=gomp;pthread

//Path to the gomp library for OpenMP
OpenMP_gomp_LIBRARY:FILEPATH=/usr/lib/gcc/x86_64-redhat-linux/6.3.1/libgomp.so

//Path to the pthread library for OpenMP
OpenMP_pthread_LIBRARY:FILEPATH=/usr/lib64/libpthread.so

//Switch to build RRTMG as a component of GEOS-Chem
RRTMG:BOOL=OFF

//Path(s) to run directory (semicolon separated list). Specifies
// install locations for gchp
RUNDIR:PATH=/net/fs03/d0/emroy/GCrundir/MCHgMAP_runs/run0017

//Switch to turn on code sanitation (i.e. identify memory leaks
// and similar conditions)
SANITIZE:BOOL=OFF

//Switch to enable TOMAS
TOMAS:BOOL=OFF

//Number of TOMAS bins (only used if TOMAS is true)
TOMAS_BINS:STRING=NA

//Switch to set flexible precision 8-byte floating point real
USE_REAL8:BOOL=ON

//Value Computed by CMake
geos-chem-classic_BINARY_DIR:STATIC=/net/fs03/d0/emroy/GCrundir/MCHgMAP_runs/run0017/build

//Value Computed by CMake
geos-chem-classic_IS_TOP_LEVEL:STATIC=ON

//Value Computed by CMake
geos-chem-classic_SOURCE_DIR:STATIC=/net/fs03/d0/emroy/GCrundir/MCHgMAP_runs/run0017/CodeDir


########################
# INTERNAL cache entries
########################

//ADVANCED property for variable: CMAKE_ADDR2LINE
CMAKE_ADDR2LINE-ADVANCED:INTERNAL=1
//ADVANCED property for variable: CMAKE_AR
CMAKE_AR-ADVANCED:INTERNAL=1
//This is the directory where this CMakeCache.txt was created
CMAKE_CACHEFILE_DIR:INTERNAL=/net/fs03/d0/emroy/GCrundir/MCHgMAP_runs/run0017/build
//Major version of cmake used to create the current loaded cache
CMAKE_CACHE_MAJOR_VERSION:INTERNAL=3
//Minor version of cmake used to create the current loaded cache
CMAKE_CACHE_MINOR_VERSION:INTERNAL=26
//Patch version of cmake used to create the current loaded cache
CMAKE_CACHE_PATCH_VERSION:INTERNAL=4
//ADVANCED property for variable: CMAKE_COLOR_MAKEFILE
CMAKE_COLOR_MAKEFILE-ADVANCED:INTERNAL=1
//Path to CMake executable.
CMAKE_COMMAND:INTERNAL=/home/software/cmake/3.26.4/bin/cmake
//Path to cpack program executable.
CMAKE_CPACK_COMMAND:INTERNAL=/home/software/cmake/3.26.4/bin/cpack
//Path to ctest program executable.
CMAKE_CTEST_COMMAND:INTERNAL=/home/software/cmake/3.26.4/bin/ctest
//ADVANCED property for variable: CMAKE_DLLTOOL
CMAKE_DLLTOOL-ADVANCED:INTERNAL=1
//Path to cache edit program executable.
CMAKE_EDIT_COMMAND:INTERNAL=/home/software/cmake/3.26.4/bin/ccmake
//Executable file format
CMAKE_EXECUTABLE_FORMAT:INTERNAL=ELF
//ADVANCED property for variable: CMAKE_EXE_LINKER_FLAGS
CMAKE_EXE_LINKER_FLAGS-ADVANCED:INTERNAL=1
//ADVANCED property for variable: CMAKE_EXE_LINKER_FLAGS_DEBUG
CMAKE_EXE_LINKER_FLAGS_DEBUG-ADVANCED:INTERNAL=1
//ADVANCED property for variable: CMAKE_EXE_LINKER_FLAGS_MINSIZEREL
CMAKE_EXE_LINKER_FLAGS_MINSIZEREL-ADVANCED:INTERNAL=1
//ADVANCED property for variable: CMAKE_EXE_LINKER_FLAGS_RELEASE
CMAKE_EXE_LINKER_FLAGS_RELEASE-ADVANCED:INTERNAL=1
//ADVANCED property for variable: CMAKE_EXE_LINKER_FLAGS_RELWITHDEBINFO
CMAKE_EXE_LINKER_FLAGS_RELWITHDEBINFO-ADVANCED:INTERNAL=1
//ADVANCED property for variable: CMAKE_EXPORT_COMPILE_COMMANDS
CMAKE_EXPORT_COMPILE_COMMANDS-ADVANCED:INTERNAL=1
//Name of external makefile project generator.
CMAKE_EXTRA_GENERATOR:INTERNAL=
//ADVANCED property for variable: CMAKE_Fortran_COMPILER
CMAKE_Fortran_COMPILER-ADVANCED:INTERNAL=1
//ADVANCED property for variable: CMAKE_Fortran_COMPILER_AR
CMAKE_Fortran_COMPILER_AR-ADVANCED:INTERNAL=1
//ADVANCED property for variable: CMAKE_Fortran_COMPILER_RANLIB
CMAKE_Fortran_COMPILER_RANLIB-ADVANCED:INTERNAL=1
//ADVANCED property for variable: CMAKE_Fortran_FLAGS
CMAKE_Fortran_FLAGS-ADVANCED:INTERNAL=1
//ADVANCED property for variable: CMAKE_Fortran_FLAGS_DEBUG
CMAKE_Fortran_FLAGS_DEBUG-ADVANCED:INTERNAL=1
//ADVANCED property for variable: CMAKE_Fortran_FLAGS_MINSIZEREL
CMAKE_Fortran_FLAGS_MINSIZEREL-ADVANCED:INTERNAL=1
//ADVANCED property for variable: CMAKE_Fortran_FLAGS_RELEASE
CMAKE_Fortran_FLAGS_RELEASE-ADVANCED:INTERNAL=1
//ADVANCED property for variable: CMAKE_Fortran_FLAGS_RELWITHDEBINFO
CMAKE_Fortran_FLAGS_RELWITHDEBINFO-ADVANCED:INTERNAL=1
//Name of generator.
CMAKE_GENERATOR:INTERNAL=Unix Makefiles
//Generator instance identifier.
CMAKE_GENERATOR_INSTANCE:INTERNAL=
//Name of generator platform.
CMAKE_GENERATOR_PLATFORM:INTERNAL=
//Name of generator toolset.
CMAKE_GENERATOR_TOOLSET:INTERNAL=
//Source directory with the top level CMakeLists.txt file for this
// project
CMAKE_HOME_DIRECTORY:INTERNAL=/net/fs03/d0/emroy/GCrundir/MCHgMAP_runs/run0017/CodeDir
//Install .so files without execute permission.
CMAKE_INSTALL_SO_NO_EXE:INTERNAL=0
//ADVANCED property for variable: CMAKE_LINKER
CMAKE_LINKER-ADVANCED:INTERNAL=1
//ADVANCED property for variable: CMAKE_MAKE_PROGRAM
CMAKE_MAKE_PROGRAM-ADVANCED:INTERNAL=1
//ADVANCED property for variable: CMAKE_MODULE_LINKER_FLAGS
CMAKE_MODULE_LINKER_FLAGS-ADVANCED:INTERNAL=1
//ADVANCED property for variable: CMAKE_MODULE_LINKER_FLAGS_DEBUG
CMAKE_MODULE_LINKER_FLAGS_DEBUG-ADVANCED:INTERNAL=1
//ADVANCED property for variable: CMAKE_MODULE_LINKER_FLAGS_MINSIZEREL
CMAKE_MODULE_LINKER_FLAGS_MINSIZEREL-ADVANCED:INTERNAL=1
//ADVANCED property for variable: CMAKE_MODULE_LINKER_FLAGS_RELEASE
CMAKE_MODULE_LINKER_FLAGS_RELEASE-ADVANCED:INTERNAL=1
//ADVANCED property for variable: CMAKE_MODULE_LINKER_FLAGS_RELWITHDEBINFO
CMAKE_MODULE_LINKER_FLAGS_RELWITHDEBINFO-ADVANCED:INTERNAL=1
//ADVANCED property for variable: CMAKE_NM
CMAKE_NM-ADVANCED:INTERNAL=1
//number of local generators
CMAKE_NUMBER_OF_MAKEFILES:INTERNAL=32
//ADVANCED property for variable: CMAKE_OBJCOPY
CMAKE_OBJCOPY-ADVANCED:INTERNAL=1
//ADVANCED property for variable: CMAKE_OBJDUMP
CMAKE_OBJDUMP-ADVANCED:INTERNAL=1
//Platform information initialized
CMAKE_PLATFORM_INFO_INITIALIZED:INTERNAL=1
//ADVANCED property for variable: CMAKE_RANLIB
CMAKE_RANLIB-ADVANCED:INTERNAL=1
//ADVANCED property for variable: CMAKE_READELF
CMAKE_READELF-ADVANCED:INTERNAL=1
//Path to CMake installation.
CMAKE_ROOT:INTERNAL=/home/software/cmake/3.26.4/share/cmake-3.26
//ADVANCED property for variable: CMAKE_SHARED_LINKER_FLAGS
CMAKE_SHARED_LINKER_FLAGS-ADVANCED:INTERNAL=1
//ADVANCED property for variable: CMAKE_SHARED_LINKER_FLAGS_DEBUG
CMAKE_SHARED_LINKER_FLAGS_DEBUG-ADVANCED:INTERNAL=1
//ADVANCED property for variable: CMAKE_SHARED_LINKER_FLAGS_MINSIZEREL
CMAKE_SHARED_LINKER_FLAGS_MINSIZEREL-ADVANCED:INTERNAL=1
//ADVANCED property for variable: CMAKE_SHARED_LINKER_FLAGS_RELEASE
CMAKE_SHARED_LINKER_FLAGS_RELEASE-ADVANCED:INTERNAL=1
//ADVANCED property for variable: CMAKE_SHARED_LINKER_FLAGS_RELWITHDEBINFO
CMAKE_SHARED_LINKER_FLAGS_RELWITHDEBINFO-ADVANCED:INTERNAL=1
//ADVANCED property for variable: CMAKE_SKIP_INSTALL_RPATH
CMAKE_SKIP_INSTALL_RPATH-ADVANCED:INTERNAL=1
//ADVANCED property for variable: CMAKE_SKIP_RPATH
CMAKE_SKIP_RPATH-ADVANCED:INTERNAL=1
//ADVANCED property for variable: CMAKE_STATIC_LINKER_FLAGS
CMAKE_STATIC_LINKER_FLAGS-ADVANCED:INTERNAL=1
//ADVANCED property for variable: CMAKE_STATIC_LINKER_FLAGS_DEBUG
CMAKE_STATIC_LINKER_FLAGS_DEBUG-ADVANCED:INTERNAL=1
//ADVANCED property for variable: CMAKE_STATIC_LINKER_FLAGS_MINSIZEREL
CMAKE_STATIC_LINKER_FLAGS_MINSIZEREL-ADVANCED:INTERNAL=1
//ADVANCED property for variable: CMAKE_STATIC_LINKER_FLAGS_RELEASE
CMAKE_STATIC_LINKER_FLAGS_RELEASE-ADVANCED:INTERNAL=1
//ADVANCED property for variable: CMAKE_STATIC_LINKER_FLAGS_RELWITHDEBINFO
CMAKE_STATIC_LINKER_FLAGS_RELWITHDEBINFO-ADVANCED:INTERNAL=1
//ADVANCED property for variable: CMAKE_STRIP
CMAKE_STRIP-ADVANCED:INTERNAL=1
//uname command
CMAKE_UNAME:INTERNAL=/usr/bin/uname
//ADVANCED property for variable: CMAKE_VERBOSE_MAKEFILE
CMAKE_VERBOSE_MAKEFILE-ADVANCED:INTERNAL=1
//Result of TRY_COMPILE
COMPILED_OK:INTERNAL=TRUE
//ADVANCED property for variable: EXE_FILE_NAME
EXE_FILE_NAME-ADVANCED:INTERNAL=1
//Details about finding NetCDF
FIND_PACKAGE_MESSAGE_DETAILS_NetCDF:INTERNAL=[/home/software/gcc/6.3.1/pkg/netcdf-fortran/4.5.3/lib/libnetcdff.so][/home/software/gcc/6.3.1/pkg/netcdf/4.7.4/lib/libnetcdf.so][/home/software/gcc/6.3.1/pkg/netcdf/4.7.4/include][/home/software/gcc/6.3.1/pkg/netcdf-fortran/4.5.3/include][/home/software/gcc/6.3.1/pkg/netcdf-fortran/4.5.3/include][v()]
//Details about finding OpenMP
FIND_PACKAGE_MESSAGE_DETAILS_OpenMP:INTERNAL=[TRUE][c ][v4.0()]
//Details about finding OpenMP_Fortran
FIND_PACKAGE_MESSAGE_DETAILS_OpenMP_Fortran:INTERNAL=[-fopenmp][/usr/lib/gcc/x86_64-redhat-linux/6.3.1/libgomp.so][/usr/lib64/libpthread.so][v4.0()]
//try_run passed
GC_TRY_RUN_PASSED:INTERNAL=TRUE
//Logging the COMPILER_ID to CMakeCache.txt
GEOSChem_DETECTED_FORTRAN_COMPILER_ID:INTERNAL=GNU
//Logging the compiler version to CMakeCache.txt
GEOSChem_DETECTED_FORTRAN_COMPILER_VERSION:INTERNAL=6.3.1
//ADVANCED property for variable: NC_CONFIG
NC_CONFIG-ADVANCED:INTERNAL=1
//ADVANCED property for variable: NETCDF_C_INCLUDE_DIR
NETCDF_C_INCLUDE_DIR-ADVANCED:INTERNAL=1
//ADVANCED property for variable: NETCDF_C_LIBRARY
NETCDF_C_LIBRARY-ADVANCED:INTERNAL=1
//ADVANCED property for variable: NETCDF_F77_INCLUDE_DIR
NETCDF_F77_INCLUDE_DIR-ADVANCED:INTERNAL=1
//ADVANCED property for variable: NETCDF_F90_INCLUDE_DIR
NETCDF_F90_INCLUDE_DIR-ADVANCED:INTERNAL=1
//ADVANCED property for variable: NETCDF_F_LIBRARY
NETCDF_F_LIBRARY-ADVANCED:INTERNAL=1
//ADVANCED property for variable: NF_CONFIG
NF_CONFIG-ADVANCED:INTERNAL=1
//Result of TRY_COMPILE
OpenMP_COMPILE_RESULT_FortranHeader_fopenmp:INTERNAL=TRUE
//Result of TRY_COMPILE
OpenMP_COMPILE_RESULT_FortranModule_fopenmp:INTERNAL=TRUE
//ADVANCED property for variable: OpenMP_Fortran_FLAGS
OpenMP_Fortran_FLAGS-ADVANCED:INTERNAL=1
//ADVANCED property for variable: OpenMP_Fortran_LIB_NAMES
OpenMP_Fortran_LIB_NAMES-ADVANCED:INTERNAL=1
//Fortran compiler's OpenMP specification date
OpenMP_Fortran_SPEC_DATE:INTERNAL=201307
//Result of TRY_COMPILE
OpenMP_SPECTEST_Fortran_:INTERNAL=TRUE
//ADVANCED property for variable: OpenMP_gomp_LIBRARY
OpenMP_gomp_LIBRARY-ADVANCED:INTERNAL=1
//ADVANCED property for variable: OpenMP_pthread_LIBRARY
OpenMP_pthread_LIBRARY-ADVANCED:INTERNAL=1
//Result of try_run()
RUN_FAILED:INTERNAL=0
//linker supports push/pop state
_CMAKE_LINKER_PUSHPOP_STATE_SUPPORTED:INTERNAL=TRUE

