June 21, 2024
Photolysis rate adjustment

We are testing updated oxidant fields for the GEOS-Chem model and need to adjust the photoreduction rate to find the optimal tuning value.
The value used in existing standard v14 runs is 0.010. Test run values will include 0.001 (run0010), 0.010 (run0011), and 0.1 (run0012)
